<?xml version="1.0" encoding="UTF-8"?>
<!-- generated on 2018-12-11 22:40:51.578263 by $Id$ via randomTrips.py
  options: 
-->
<routes xmlns:xsi="http://www.w3.org/2001/XMLSchema-instance" xsi:noNamespaceSchemaLocation="http://sumo.dlr.de/xsd/routes_file.xsd">
    <vType id="passenger" speedFactor="normc(1.00,0.10,0.20,2.00)" vClass="passenger">
    </vType>
    <trip id="veh0" depart="0.00" departLane="best" from="176086983#0" to="-145886211#0" type="passenger"/>
    <trip id="veh1" depart="27.98" departLane="best" from="193817182" to="-176086983#1" type="passenger"/>
    <trip id="veh2" depart="55.96" departLane="best" from="-41169445#3" to="-176086983#1" type="passenger"/>
    <trip id="veh3" depart="83.95" departLane="best" from="176086983#0" to="145886211#1" type="passenger"/>
    <trip id="veh4" depart="111.93" departLane="best" from="-176086983#4" to="145886211#1" type="passenger"/>
    <trip id="veh5" depart="139.91" departLane="best" from="-41169445#1" to="-176086983#1" type="passenger"/>
    <trip id="veh6" depart="167.89" departLane="best" from="-145886211#5" to="-176086983#1" type="passenger"/>
    <trip id="veh7" depart="195.88" departLane="best" from="193817182" to="145886211#1" type="passenger"/>
    <trip id="veh8" depart="223.86" departLane="best" from="176086983#0" to="41169445#2" type="passenger"/>
    <trip id="veh9" depart="251.84" departLane="best" from="-41169445#3" to="145886211#1" type="passenger"/>
    <trip id="veh10" depart="279.82" departLane="best" from="193817182" to="145886211#1" type="passenger"/>
    <trip id="veh11" depart="307.80" departLane="best" from="193817182" to="145886211#1" type="passenger"/>
    <trip id="veh12" depart="335.79" departLane="best" from="176086983#3" to="-176086983#1" type="passenger"/>
    <trip id="veh13" depart="363.77" departLane="best" from="-145886211#5" to="-176086983#4" type="passenger"/>
    <trip id="veh14" depart="391.75" departLane="best" from="-145886211#5" to="-193817181#1" type="passenger"/>
    <trip id="veh15" depart="419.73" departLane="best" from="176086983#0" to="-193817182" type="passenger"/>
    <trip id="veh16" depart="447.72" departLane="best" from="176086983#0" to="145886211#1" type="passenger"/>
    <trip id="veh17" depart="475.70" departLane="best" from="-145886211#5" to="176086983#4" type="passenger"/>
    <trip id="veh18" depart="503.68" departLane="best" from="-145886211#5" to="-193817182" type="passenger"/>
    <trip id="veh19" depart="531.66" departLane="best" from="41169445#1" to="145886211#1" type="passenger"/>
    <trip id="veh20" depart="559.64" departLane="best" from="176086983#0" to="176086983#3" type="passenger"/>
    <trip id="veh21" depart="587.63" departLane="best" from="-176086983#4" to="-176086983#1" type="passenger"/>
    <trip id="veh22" depart="615.61" departLane="best" from="176086983#0" to="-193817182" type="passenger"/>
    <trip id="veh23" depart="643.59" departLane="best" from="176086983#0" to="-193817181#0" type="passenger"/>
    <trip id="veh24" depart="671.57" departLane="best" from="176086983#0" to="41169445#2" type="passenger"/>
    <trip id="veh25" depart="699.56" departLane="best" from="-145886211#5" to="-176086983#1" type="passenger"/>
    <trip id="veh26" depart="727.54" departLane="best" from="-145886211#5" to="-193817182" type="passenger"/>
    <trip id="veh27" depart="755.52" departLane="best" from="176086983#3" to="145886211#1" type="passenger"/>
    <trip id="veh28" depart="783.50" departLane="best" from="-193817181#1" to="145886211#1" type="passenger"/>
    <trip id="veh29" depart="811.49" departLane="best" from="-145886211#5" to="-193817182" type="passenger"/>
    <trip id="veh30" depart="839.47" departLane="best" from="-41169445#0" to="145886211#1" type="passenger"/>
    <trip id="veh31" depart="867.45" departLane="best" from="193817181#0" to="145886211#1" type="passenger"/>
    <trip id="veh32" depart="895.43" departLane="best" from="193817181#1" to="145886211#1" type="passenger"/>
    <trip id="veh33" depart="923.41" departLane="best" from="-41169445#0" to="-176086983#1" type="passenger"/>
    <trip id="veh34" depart="951.40" departLane="best" from="-145886211#5" to="-41169445#1" type="passenger"/>
    <trip id="veh35" depart="979.38" departLane="best" from="-145886211#5" to="193817181#0" type="passenger"/>
    <trip id="veh36" depart="1007.36" departLane="best" from="193817181#1" to="-176086983#1" type="passenger"/>
    <trip id="veh37" depart="1035.34" departLane="best" from="-41169445#3" to="145886211#1" type="passenger"/>
    <trip id="veh38" depart="1063.33" departLane="best" from="176086983#0" to="176086983#4" type="passenger"/>
    <trip id="veh39" depart="1091.31" departLane="best" from="41169445#1" to="145886211#1" type="passenger"/>
    <trip id="veh40" depart="1119.29" departLane="best" from="-145886211#5" to="-176086983#4" type="passenger"/>
    <trip id="veh41" depart="1147.27" departLane="best" from="-41169445#1" to="145886211#1" type="passenger"/>
    <trip id="veh42" depart="1175.25" departLane="best" from="193817182" to="-176086983#1" type="passenger"/>
    <trip id="veh43" depart="1203.24" departLane="best" from="-193817181#0" to="145886211#1" type="passenger"/>
    <trip id="veh44" depart="1231.22" departLane="best" from="-176086983#4" to="-176086983#1" type="passenger"/>
    <trip id="veh45" depart="1259.20" departLane="best" from="193817182" to="145886211#1" type="passenger"/>
    <trip id="veh46" depart="1287.18" departLane="best" from="-145886211#5" to="-193817182" type="passenger"/>
    <trip id="veh47" depart="1315.17" departLane="best" from="176086983#4" to="145886211#1" type="passenger"/>
    <trip id="veh48" depart="1343.15" departLane="best" from="41169445#1" to="-176086983#1" type="passenger"/>
    <trip id="veh49" depart="1371.13" departLane="best" from="193817182" to="-176086983#1" type="passenger"/>
    <trip id="veh50" depart="1399.11" departLane="best" from="-41169445#3" to="-176086983#1" type="passenger"/>
    <trip id="veh51" depart="1427.09" departLane="best" from="176086983#0" to="176086983#4" type="passenger"/>
    <trip id="veh52" depart="1455.08" departLane="best" from="-145886211#5" to="-193817182" type="passenger"/>
    <trip id="veh53" depart="1483.06" departLane="best" from="41169445#0" to="145886211#1" type="passenger"/>
    <trip id="veh54" depart="1511.04" departLane="best" from="176086983#0" to="193817181#0" type="passenger"/>
    <trip id="veh55" depart="1539.02" departLane="best" from="-145886211#5" to="41169445#2" type="passenger"/>
    <trip id="veh56" depart="1567.01" departLane="best" from="-145886211#5" to="-176086983#3" type="passenger"/>
    <trip id="veh57" depart="1594.99" departLane="best" from="176086983#0" to="145886211#1" type="passenger"/>
    <trip id="veh58" depart="1622.97" departLane="best" from="-176086983#4" to="-176086983#1" type="passenger"/>
    <trip id="veh59" depart="1650.95" departLane="best" from="176086983#0" to="145886211#1" type="passenger"/>
    <trip id="veh60" depart="1678.93" departLane="best" from="-41169445#3" to="145886211#1" type="passenger"/>
    <trip id="veh61" depart="1706.92" departLane="best" from="176086983#0" to="-193817182" type="passenger"/>
    <trip id="veh62" depart="1734.90" departLane="best" from="-145886211#5" to="-41169445#0" type="passenger"/>
    <trip id="veh63" depart="1762.88" departLane="best" from="-145886211#5" to="-176086983#4" type="passenger"/>
    <trip id="veh64" depart="1790.86" departLane="best" from="-41169445#3" to="-176086983#1" type="passenger"/>
    <trip id="veh65" depart="1818.85" departLane="best" from="176086983#0" to="41169445#2" type="passenger"/>
    <trip id="veh66" depart="1846.83" departLane="best" from="176086983#0" to="-145886211#0" type="passenger"/>
    <trip id="veh67" depart="1874.81" departLane="best" from="176086983#0" to="41169445#2" type="passenger"/>
    <trip id="veh68" depart="1902.79" departLane="best" from="-145886211#5" to="-176086983#1" type="passenger"/>
    <trip id="veh69" depart="1930.78" departLane="best" from="-193817181#1" to="145886211#1" type="passenger"/>
    <trip id="veh70" depart="1958.76" departLane="best" from="176086983#0" to="-193817181#0" type="passenger"/>
    <trip id="veh71" depart="1986.74" departLane="best" from="193817182" to="-176086983#1" type="passenger"/>
    <trip id="veh72" depart="2014.72" departLane="best" from="176086983#0" to="-193817181#0" type="passenger"/>
    <trip id="veh73" depart="2042.70" departLane="best" from="193817181#0" to="145886211#1" type="passenger"/>
    <trip id="veh74" depart="2070.69" departLane="best" from="-145886211#5" to="41169445#2" type="passenger"/>
    <trip id="veh75" depart="2098.67" departLane="best" from="193817182" to="145886211#1" type="passenger"/>
    <trip id="veh76" depart="2126.65" departLane="best" from="193817182" to="145886211#1" type="passenger"/>
    <trip id="veh77" depart="2154.63" departLane="best" from="-145886211#5" to="-176086983#1" type="passenger"/>
    <trip id="veh78" depart="2182.62" departLane="best" from="-193817181#0" to="-176086983#1" type="passenger"/>
    <trip id="veh79" depart="2210.60" departLane="best" from="-41169445#3" to="145886211#1" type="passenger"/>
    <trip id="veh80" depart="2238.58" departLane="best" from="-145886211#5" to="41169445#2" type="passenger"/>
    <trip id="veh81" depart="2266.56" departLane="best" from="193817181#1" to="-176086983#1" type="passenger"/>
    <trip id="veh82" depart="2294.54" departLane="best" from="176086983#0" to="-193817182" type="passenger"/>
    <trip id="veh83" depart="2322.53" departLane="best" from="41169445#1" to="145886211#1" type="passenger"/>
    <trip id="veh84" depart="2350.51" departLane="best" from="193817182" to="-176086983#1" type="passenger"/>
    <trip id="veh85" depart="2378.49" departLane="best" from="-145886211#5" to="-193817182" type="passenger"/>
    <trip id="veh86" depart="2406.47" departLane="best" from="176086983#0" to="145886211#0" type="passenger"/>
    <trip id="veh87" depart="2434.46" departLane="best" from="-41169445#3" to="145886211#1" type="passenger"/>
    <trip id="veh88" depart="2462.44" departLane="best" from="176086983#0" to="176086983#4" type="passenger"/>
    <trip id="veh89" depart="2490.42" departLane="best" from="193817181#0" to="145886211#1" type="passenger"/>
    <trip id="veh90" depart="2518.40" departLane="best" from="-41169445#3" to="-176086983#1" type="passenger"/>
    <trip id="veh91" depart="2546.38" departLane="best" from="176086983#0" to="-193817182" type="passenger"/>
    <trip id="veh92" depart="2574.37" departLane="best" from="-145886211#5" to="-193817182" type="passenger"/>
    <trip id="veh93" depart="2602.35" departLane="best" from="193817182" to="145886211#1" type="passenger"/>
    <trip id="veh94" depart="2630.33" departLane="best" from="-41169445#0" to="145886211#1" type="passenger"/>
    <trip id="veh95" depart="2658.31" departLane="best" from="-41169445#3" to="145886211#1" type="passenger"/>
    <trip id="veh96" depart="2686.30" departLane="best" from="176086983#0" to="-41169445#0" type="passenger"/>
    <trip id="veh97" depart="2714.28" departLane="best" from="193817182" to="-176086983#1" type="passenger"/>
    <trip id="veh98" depart="2742.26" departLane="best" from="-145886211#5" to="145886211#0" type="passenger"/>
    <trip id="veh99" depart="2770.24" departLane="best" from="176086983#0" to="-193817182" type="passenger"/>
    <trip id="veh100" depart="2798.22" departLane="best" from="176086983#0" to="-176086983#4" type="passenger"/>
    <trip id="veh101" depart="2826.21" departLane="best" from="193817182" to="-176086983#1" type="passenger"/>
    <trip id="veh102" depart="2854.19" departLane="best" from="-41169445#3" to="145886211#1" type="passenger"/>
    <trip id="veh103" depart="2882.17" departLane="best" from="176086983#0" to="-145886211#0" type="passenger"/>
    <trip id="veh104" depart="2910.15" departLane="best" from="-145886211#5" to="-193817182" type="passenger"/>
    <trip id="veh105" depart="2938.14" departLane="best" from="-145886211#5" to="41169445#2" type="passenger"/>
    <trip id="veh106" depart="2966.12" departLane="best" from="145886211#0" to="-176086983#1" type="passenger"/>
    <trip id="veh107" depart="2994.10" departLane="best" from="176086983#0" to="41169445#2" type="passenger"/>
    <trip id="veh108" depart="3022.08" departLane="best" from="176086983#0" to="41169445#2" type="passenger"/>
    <trip id="veh109" depart="3050.06" departLane="best" from="193817182" to="145886211#1" type="passenger"/>
    <trip id="veh110" depart="3078.05" departLane="best" from="193817182" to="145886211#1" type="passenger"/>
    <trip id="veh111" depart="3106.03" departLane="best" from="-193817181#0" to="145886211#1" type="passenger"/>
    <trip id="veh112" depart="3134.01" departLane="best" from="176086983#0" to="-193817181#1" type="passenger"/>
    <trip id="veh113" depart="3161.99" departLane="best" from="-145886211#5" to="-193817181#1" type="passenger"/>
    <trip id="veh114" depart="3189.98" departLane="best" from="176086983#4" to="-176086983#1" type="passenger"/>
    <trip id="veh115" depart="3217.96" departLane="best" from="-41169445#3" to="145886211#1" type="passenger"/>
    <trip id="veh116" depart="3245.94" departLane="best" from="176086983#0" to="176086983#3" type="passenger"/>
    <trip id="veh117" depart="3273.92" departLane="best" from="176086983#0" to="145886211#1" type="passenger"/>
    <trip id="veh118" depart="3301.91" departLane="best" from="-41169445#3" to="-176086983#1" type="passenger"/>
    <trip id="veh119" depart="3329.89" departLane="best" from="-41169445#3" to="-176086983#1" type="passenger"/>
    <trip id="veh120" depart="3357.87" departLane="best" from="176086983#0" to="-145886211#0" type="passenger"/>
    <trip id="veh121" depart="3385.85" departLane="best" from="-41169445#3" to="145886211#1" type="passenger"/>
    <trip id="veh122" depart="3413.83" departLane="best" from="-145886211#0" to="145886211#1" type="passenger"/>
    <trip id="veh123" depart="3441.82" departLane="best" from="-145886211#5" to="-41169445#0" type="passenger"/>
    <trip id="veh124" depart="3469.80" departLane="best" from="-145886211#5" to="-193817182" type="passenger"/>
    <trip id="veh125" depart="3497.78" departLane="best" from="-193817181#0" to="-176086983#1" type="passenger"/>
    <trip id="veh126" depart="3525.76" departLane="best" from="-145886211#0" to="145886211#1" type="passenger"/>
    <trip id="veh127" depart="3553.75" departLane="best" from="176086983#0" to="193817181#1" type="passenger"/>
    <trip id="veh128" depart="3581.73" departLane="best" from="176086983#0" to="193817181#0" type="passenger"/>
</routes>
