<?xml version="1.0" encoding="UTF-8"?>

<!-- generated on Tue Dec 11 22:40:51 2018 by SUMO netconvert Version 0.32.0
<?xml version="1.0" encoding="UTF-8"?>

<configuration xmlns:xsi="http://www.w3.org/2001/XMLSchema-instance" xsi:noNamespaceSchemaLocation="http://sumo.dlr.de/xsd/netconvertConfiguration.xsd">

    <input>
        <type-files value="/home/nathaniel/sumo-0.32.0/data/typemap/osmNetconvert.typ.xml"/>
        <osm-files value="osm_bbox.osm.xml"/>
    </input>

    <output>
        <output-file value="/home/nathaniel/sumo-0.32.0/2018-12-11-22-40-50/osm.net.xml"/>
        <output.street-names value="true"/>
        <output.original-names value="true"/>
    </output>

    <projection>
        <proj.utm value="true"/>
    </projection>

    <tls_building>
        <tls.discard-simple value="true"/>
        <tls.join value="true"/>
        <tls.guess-signals value="true"/>
        <tls.default-type value="actuated"/>
    </tls_building>

    <ramp_guessing>
        <ramps.guess value="true"/>
    </ramp_guessing>

    <processing>
        <geometry.remove value="true"/>
        <roundabouts.guess value="true"/>
        <junctions.join value="true"/>
        <junctions.corner-detail value="5"/>
    </processing>

    <report>
        <verbose value="true"/>
    </report>

</configuration>
-->

<net version="0.27" junctionCornerDetail="5" xmlns:xsi="http://www.w3.org/2001/XMLSchema-instance" xsi:noNamespaceSchemaLocation="http://sumo.dlr.de/xsd/net_file.xsd">

    <location netOffset="-538239.30,-4812859.35" convBoundary="0.00,0.00,561.95,1160.82" origBoundary="-80.527194,43.467652,-80.520225,43.478114" projParameter="+proj=utm +zone=17 +ellps=WGS84 +datum=WGS84 +units=m +no_defs"/>

    <type id="highway.bridleway" priority="1" numLanes="1" speed="2.78" allow="pedestrian" oneway="1" width="2.00"/>
    <type id="highway.bus_guideway" priority="1" numLanes="1" speed="8.33" allow="bus" oneway="1"/>
    <type id="highway.cycleway" priority="1" numLanes="1" speed="5.56" allow="bicycle" oneway="0" width="1.00"/>
    <type id="highway.footway" priority="1" numLanes="1" speed="2.78" allow="pedestrian" oneway="1" width="2.00"/>
    <type id="highway.ford" priority="1" numLanes="1" speed="2.78" allow="army" oneway="0"/>
    <type id="highway.living_street" priority="3" numLanes="1" speed="2.78" disallow="tram rail_urban rail rail_electric ship" oneway="0"/>
    <type id="highway.motorway" priority="13" numLanes="2" speed="44.44" allow="private emergency authority army vip passenger hov taxi bus coach delivery truck trailer motorcycle evehicle custom1 custom2" oneway="1"/>
    <type id="highway.motorway_link" priority="12" numLanes="1" speed="22.22" allow="private emergency authority army vip passenger hov taxi bus coach delivery truck trailer motorcycle evehicle custom1 custom2" oneway="1"/>
    <type id="highway.path" priority="1" numLanes="1" speed="2.78" allow="bicycle pedestrian" oneway="1" width="2.00"/>
    <type id="highway.pedestrian" priority="1" numLanes="1" speed="2.78" allow="pedestrian" oneway="1" width="2.00"/>
    <type id="highway.primary" priority="9" numLanes="2" speed="27.78" disallow="tram rail_urban rail rail_electric ship" oneway="0"/>
    <type id="highway.primary_link" priority="8" numLanes="1" speed="22.22" disallow="tram rail_urban rail rail_electric ship" oneway="0"/>
    <type id="highway.raceway" priority="14" numLanes="2" speed="83.33" allow="vip" oneway="0"/>
    <type id="highway.residential" priority="4" numLanes="1" speed="13.89" disallow="tram rail_urban rail rail_electric ship" oneway="0"/>
    <type id="highway.secondary" priority="7" numLanes="2" speed="27.78" disallow="tram rail_urban rail rail_electric ship" oneway="0"/>
    <type id="highway.secondary_link" priority="6" numLanes="1" speed="22.22" disallow="tram rail_urban rail rail_electric ship" oneway="0"/>
    <type id="highway.service" priority="2" numLanes="1" speed="5.56" allow="delivery bicycle pedestrian" oneway="0"/>
    <type id="highway.services" priority="1" numLanes="1" speed="8.33" disallow="tram rail_urban rail rail_electric ship" oneway="0"/>
    <type id="highway.stairs" priority="1" numLanes="1" speed="1.39" allow="pedestrian" oneway="1" width="2.00"/>
    <type id="highway.step" priority="1" numLanes="1" speed="1.39" allow="pedestrian" oneway="1" width="2.00"/>
    <type id="highway.steps" priority="1" numLanes="1" speed="1.39" allow="pedestrian" oneway="1" width="2.00"/>
    <type id="highway.tertiary" priority="6" numLanes="1" speed="22.22" disallow="tram rail_urban rail rail_electric ship" oneway="0"/>
    <type id="highway.tertiary_link" priority="5" numLanes="1" speed="22.22" disallow="tram rail_urban rail rail_electric ship" oneway="0"/>
    <type id="highway.track" priority="1" numLanes="1" speed="5.56" disallow="tram rail_urban rail rail_electric ship" oneway="0"/>
    <type id="highway.trunk" priority="11" numLanes="2" speed="27.78" disallow="tram rail_urban rail rail_electric bicycle pedestrian ship" oneway="0"/>
    <type id="highway.trunk_link" priority="10" numLanes="1" speed="22.22" disallow="tram rail_urban rail rail_electric bicycle pedestrian ship" oneway="0"/>
    <type id="highway.unclassified" priority="5" numLanes="1" speed="13.89" disallow="tram rail_urban rail rail_electric ship" oneway="0"/>
    <type id="highway.unsurfaced" priority="1" numLanes="1" speed="8.33" disallow="tram rail_urban rail rail_electric ship" oneway="0"/>
    <type id="railway.light_rail" priority="15" numLanes="1" speed="27.78" allow="rail_urban" oneway="1"/>
    <type id="railway.preserved" priority="15" numLanes="1" speed="27.78" allow="rail" oneway="1"/>
    <type id="railway.rail" priority="15" numLanes="1" speed="83.33" allow="rail rail_electric" oneway="1"/>
    <type id="railway.subway" priority="15" numLanes="1" speed="27.78" allow="rail_urban" oneway="1"/>
    <type id="railway.tram" priority="15" numLanes="1" speed="13.89" allow="tram" oneway="1"/>

    <edge id=":1331945374_0" function="internal">
        <lane id=":1331945374_0_0" index="0" disallow="tram rail_urban rail rail_electric ship" speed="9.72" length="4.56" shape="183.42,983.84 182.30,983.86 181.44,984.31 180.84,985.21 180.51,986.55"/>
    </edge>
    <edge id=":1331945374_1" function="internal">
        <lane id=":1331945374_1_0" index="0" allow="delivery bicycle pedestrian" speed="5.56" length="17.25" shape="183.42,983.84 166.40,981.09"/>
    </edge>
    <edge id=":1331945374_2" function="internal">
        <lane id=":1331945374_2_0" index="0" disallow="tram rail_urban rail rail_electric ship" speed="9.72" length="15.65" shape="183.42,983.84 178.10,982.56 174.43,980.74 172.41,978.35 172.04,975.42"/>
    </edge>
    <edge id=":1331945374_3" function="internal">
        <lane id=":1331945374_3_0" index="0" allow="delivery bicycle pedestrian" speed="5.56" length="4.82" shape="183.42,983.84 182.33,982.83 182.06,981.95 182.60,981.20 183.95,980.58"/>
    </edge>
    <edge id=":1331945374_4" function="internal">
        <lane id=":1331945374_4_0" index="0" allow="delivery bicycle pedestrian" speed="9.72" length="4.89" shape="181.84,976.80 181.80,978.30 182.13,979.43 182.85,980.19 183.95,980.58"/>
    </edge>
    <edge id=":1331945374_5" function="internal">
        <lane id=":1331945374_5_0" index="0" disallow="tram rail_urban rail rail_electric ship" speed="13.89" length="9.87" shape="181.84,976.80 180.51,986.55"/>
        <lane id=":1331945374_5_1" index="1" disallow="tram rail_urban rail rail_electric ship" speed="13.89" length="9.87" shape="178.57,976.34 177.24,986.12"/>
        <lane id=":1331945374_5_2" index="2" disallow="tram rail_urban rail rail_electric ship" speed="13.89" length="9.87" shape="175.31,975.88 173.96,985.68"/>
    </edge>
    <edge id=":1331945374_8" function="internal">
        <lane id=":1331945374_8_0" index="0" allow="delivery bicycle pedestrian" speed="9.72" length="4.86" shape="175.31,975.88 174.41,978.64 173.02,980.02"/>
    </edge>
    <edge id=":1331945374_9" function="internal">
        <lane id=":1331945374_9_0" index="0" disallow="tram rail_urban rail rail_electric ship" speed="13.89" length="2.41" shape="175.31,975.88 174.32,976.99 173.44,977.28"/>
    </edge>
    <edge id=":1331945374_19" function="internal">
        <lane id=":1331945374_19_0" index="0" speed="9.72" length="6.92" shape="173.02,980.02 172.62,980.43 169.95,981.24 166.40,981.09"/>
    </edge>
    <edge id=":1331945374_20" function="internal">
        <lane id=":1331945374_20_0" index="0" speed="13.89" length="2.41" shape="173.44,977.28 172.68,976.76 172.04,975.42"/>
    </edge>
    <edge id=":1331945374_10" function="internal">
        <lane id=":1331945374_10_0" index="0" disallow="tram rail_urban rail rail_electric ship" speed="9.72" length="3.83" shape="166.82,977.82 167.51,977.73 168.06,977.22 168.49,976.30 168.77,974.96"/>
    </edge>
    <edge id=":1331945374_11" function="internal">
        <lane id=":1331945374_11_0" index="0" allow="delivery bicycle pedestrian" speed="5.56" length="17.36" shape="166.82,977.82 183.95,980.58"/>
    </edge>
    <edge id=":1331945374_12" function="internal">
        <lane id=":1331945374_12_0" index="0" disallow="tram rail_urban rail rail_electric ship" speed="9.72" length="12.02" shape="166.82,977.82 170.27,978.79 172.62,980.42 173.85,982.72 173.96,985.68"/>
    </edge>
    <edge id=":1331945374_13" function="internal">
        <lane id=":1331945374_13_0" index="0" allow="delivery bicycle pedestrian" speed="5.56" length="4.82" shape="166.82,977.82 167.94,978.79 168.24,979.66 167.73,980.43 166.40,981.09"/>
    </edge>
    <edge id=":1331945374_14" function="internal">
        <lane id=":1331945374_14_0" index="0" allow="delivery bicycle pedestrian" speed="9.72" length="4.21" shape="167.42,984.81 167.53,983.27 167.40,982.14 167.02,981.41 166.40,981.09"/>
    </edge>
    <edge id=":1331945374_15" function="internal">
        <lane id=":1331945374_15_0" index="0" disallow="tram rail_urban rail rail_electric ship" speed="13.89" length="9.93" shape="167.42,984.81 168.77,974.96"/>
        <lane id=":1331945374_15_1" index="1" disallow="tram rail_urban rail rail_electric ship" speed="13.89" length="9.93" shape="170.69,985.25 172.04,975.42"/>
    </edge>
    <edge id=":1331945374_17" function="internal">
        <lane id=":1331945374_17_0" index="0" allow="delivery bicycle pedestrian" speed="9.72" length="4.26" shape="170.69,985.25 171.85,982.45 172.88,981.77"/>
    </edge>
    <edge id=":1331945374_18" function="internal">
        <lane id=":1331945374_18_0" index="0" disallow="tram rail_urban rail rail_electric ship" speed="13.89" length="2.41" shape="170.69,985.25 171.67,984.13 172.55,983.83"/>
    </edge>
    <edge id=":1331945374_21" function="internal">
        <lane id=":1331945374_21_0" index="0" speed="9.72" length="11.44" shape="172.88,981.77 174.45,980.74 178.48,980.12 183.95,980.58"/>
    </edge>
    <edge id=":1331945374_22" function="internal">
        <lane id=":1331945374_22_0" index="0" speed="13.89" length="2.41" shape="172.55,983.83 173.31,984.35 173.96,985.68"/>
    </edge>
    <edge id=":1334076965_0" function="internal">
        <lane id=":1334076965_0_0" index="0" allow="delivery bicycle pedestrian" speed="5.56" length="9.51" shape="224.09,922.05 215.23,918.59"/>
    </edge>
    <edge id=":1334076965_1" function="internal">
        <lane id=":1334076965_1_0" index="0" allow="delivery bicycle pedestrian" speed="5.56" length="10.35" shape="224.09,922.05 221.73,920.69 220.32,918.84 219.88,916.49 220.39,913.63"/>
    </edge>
    <edge id=":1334076965_2" function="internal">
        <lane id=":1334076965_2_0" index="0" allow="delivery bicycle pedestrian" speed="5.56" length="4.82" shape="224.09,922.05 223.24,920.83 223.16,919.91 223.84,919.29 225.29,918.98"/>
    </edge>
    <edge id=":1334076965_3" function="internal">
        <lane id=":1334076965_3_0" index="0" allow="delivery bicycle pedestrian" speed="5.56" length="5.26" shape="223.53,914.64 223.25,916.13 223.45,917.35 224.13,918.30 225.29,918.98"/>
    </edge>
    <edge id=":1334076965_4" function="internal">
        <lane id=":1334076965_4_0" index="0" allow="delivery bicycle pedestrian" speed="5.56" length="10.64" shape="223.53,914.64 222.24,917.29 220.43,918.83 218.09,919.26 215.23,918.59"/>
    </edge>
    <edge id=":1334076965_5" function="internal">
        <lane id=":1334076965_5_0" index="0" allow="delivery bicycle pedestrian" speed="5.56" length="4.82" shape="223.53,914.64 222.37,915.57 221.46,915.71 220.80,915.06 220.39,913.63"/>
    </edge>
    <edge id=":1334076965_6" function="internal">
        <lane id=":1334076965_6_0" index="0" allow="delivery bicycle pedestrian" speed="5.56" length="5.08" shape="216.43,915.52 217.80,915.84 218.91,915.63 219.78,914.90 220.39,913.63"/>
    </edge>
    <edge id=":1334076965_7" function="internal">
        <lane id=":1334076965_7_0" index="0" allow="delivery bicycle pedestrian" speed="5.56" length="9.51" shape="216.43,915.52 225.29,918.98"/>
    </edge>
    <edge id=":1334076965_8" function="internal">
        <lane id=":1334076965_8_0" index="0" allow="delivery bicycle pedestrian" speed="5.56" length="4.82" shape="216.43,915.52 217.28,916.74 217.37,917.66 216.68,918.28 215.23,918.59"/>
    </edge>
    <edge id=":1334076967_0" function="internal">
        <lane id=":1334076967_0_0" index="0" allow="delivery bicycle pedestrian" speed="5.56" length="9.67" shape="240.86,921.63 237.33,930.63"/>
    </edge>
    <edge id=":1334076967_1" function="internal">
        <lane id=":1334076967_1_0" index="0" allow="delivery bicycle pedestrian" speed="5.56" length="10.41" shape="240.86,921.63 239.49,924.14 237.65,925.59 235.34,926.00 232.55,925.34"/>
    </edge>
    <edge id=":1334076967_2" function="internal">
        <lane id=":1334076967_2_0" index="0" allow="delivery bicycle pedestrian" speed="5.56" length="4.82" shape="240.86,921.63 239.65,922.50 238.74,922.60 238.11,921.93 237.76,920.48"/>
    </edge>
    <edge id=":1334076967_3" function="internal">
        <lane id=":1334076967_3_0" index="0" allow="delivery bicycle pedestrian" speed="5.56" length="5.03" shape="233.75,922.27 235.10,922.58 236.22,922.39 237.10,921.69 237.76,920.48"/>
    </edge>
    <edge id=":1334076967_4" function="internal">
        <lane id=":1334076967_4_0" index="0" allow="delivery bicycle pedestrian" speed="5.56" length="10.42" shape="233.75,922.27 236.24,923.68 237.67,925.54 238.03,927.86 237.33,930.63"/>
    </edge>
    <edge id=":1334076967_5" function="internal">
        <lane id=":1334076967_5_0" index="0" allow="delivery bicycle pedestrian" speed="5.56" length="4.82" shape="233.75,922.27 234.60,923.49 234.69,924.41 234.00,925.02 232.55,925.34"/>
    </edge>
    <edge id=":1334076967_6" function="internal">
        <lane id=":1334076967_6_0" index="0" allow="delivery bicycle pedestrian" speed="5.56" length="5.02" shape="234.28,929.38 234.62,928.04 234.44,926.92 233.75,926.02 232.55,925.34"/>
    </edge>
    <edge id=":1334076967_7" function="internal">
        <lane id=":1334076967_7_0" index="0" allow="delivery bicycle pedestrian" speed="5.56" length="9.56" shape="234.28,929.38 237.76,920.48"/>
    </edge>
    <edge id=":1334076967_8" function="internal">
        <lane id=":1334076967_8_0" index="0" allow="delivery bicycle pedestrian" speed="5.56" length="4.82" shape="234.28,929.38 235.51,928.55 236.43,928.48 237.04,929.18 237.33,930.63"/>
    </edge>
    <edge id=":15434355_0" function="internal">
        <lane id=":15434355_0_0" index="0" disallow="tram rail_urban rail rail_electric ship" speed="15.28" length="5.43" shape="188.72,953.25 187.23,952.77 186.09,952.95 185.31,953.79 184.88,955.29"/>
    </edge>
    <edge id=":15434355_1" function="internal">
        <lane id=":15434355_1_0" index="0" disallow="tram rail_urban rail rail_electric ship" speed="22.22" length="24.25" shape="188.72,953.25 166.93,942.56"/>
        <lane id=":15434355_1_1" index="1" disallow="tram rail_urban rail rail_electric ship" speed="22.22" length="24.25" shape="190.16,950.28 168.40,939.60"/>
    </edge>
    <edge id=":15434355_3" function="internal">
        <lane id=":15434355_3_0" index="0" disallow="tram rail_urban rail rail_electric ship" speed="22.22" length="13.55" shape="190.16,950.28 184.32,946.54 180.44,941.99 180.23,941.39"/>
    </edge>
    <edge id=":15434355_4" function="internal">
        <lane id=":15434355_4_0" index="0" disallow="tram rail_urban rail rail_electric ship" speed="16.67" length="2.60" shape="190.16,950.28 189.41,948.99 189.40,948.07 189.55,947.95"/>
    </edge>
    <edge id=":15434355_20" function="internal">
        <lane id=":15434355_20_0" index="0" speed="22.22" length="11.26" shape="180.23,941.39 178.55,936.62 178.63,930.42"/>
    </edge>
    <edge id=":15434355_21" function="internal">
        <lane id=":15434355_21_0" index="0" speed="16.67" length="2.22" shape="189.55,947.95 190.13,947.51 191.60,947.31"/>
    </edge>
    <edge id=":15434355_5" function="internal">
        <lane id=":15434355_5_0" index="0" disallow="tram rail_urban rail rail_electric ship" speed="22.22" length="16.30" shape="185.14,931.47 185.13,935.42 186.44,938.87 189.08,941.85 193.05,944.34"/>
    </edge>
    <edge id=":15434355_6" function="internal">
        <lane id=":15434355_6_0" index="0" disallow="tram rail_urban rail rail_electric ship" speed="20.83" length="23.66" shape="185.14,931.47 181.61,954.83"/>
        <lane id=":15434355_6_1" index="1" disallow="tram rail_urban rail rail_electric ship" speed="20.83" length="23.66" shape="181.89,930.95 178.34,954.37"/>
    </edge>
    <edge id=":15434355_8" function="internal">
        <lane id=":15434355_8_0" index="0" disallow="tram rail_urban rail rail_electric ship" speed="27.78" length="7.85" shape="181.89,930.95 180.18,936.82 179.08,938.15"/>
    </edge>
    <edge id=":15434355_9" function="internal">
        <lane id=":15434355_9_0" index="0" disallow="tram rail_urban rail rail_electric ship" speed="27.78" length="2.41" shape="181.89,930.95 180.87,932.04 179.99,932.31"/>
    </edge>
    <edge id=":15434355_22" function="internal">
        <lane id=":15434355_22_0" index="0" speed="27.78" length="11.98" shape="179.08,938.15 177.37,940.22 173.44,941.14 168.40,939.60"/>
    </edge>
    <edge id=":15434355_23" function="internal">
        <lane id=":15434355_23_0" index="0" speed="27.78" length="2.41" shape="179.99,932.31 179.25,931.77 178.63,930.42"/>
    </edge>
    <edge id=":15434355_10" function="internal">
        <lane id=":15434355_10_0" index="0" disallow="tram rail_urban rail rail_electric ship" speed="27.78" length="3.32" shape="172.80,930.73 173.81,931.10 174.57,931.08 175.09,930.68 175.37,929.89"/>
    </edge>
    <edge id=":15434355_11" function="internal">
        <lane id=":15434355_11_0" index="0" disallow="tram rail_urban rail rail_electric ship" speed="22.22" length="24.46" shape="172.80,930.73 179.31,934.53 183.65,937.93 187.63,941.13 193.05,944.34"/>
        <lane id=":15434355_11_1" index="1" disallow="tram rail_urban rail rail_electric ship" speed="22.22" length="24.46" shape="171.34,933.69 177.85,937.49 182.20,940.90 186.18,944.10 191.60,947.31"/>
    </edge>
    <edge id=":15434355_13" function="internal">
        <lane id=":15434355_13_0" index="0" disallow="tram rail_urban rail rail_electric ship" speed="20.83" length="7.27" shape="169.87,936.65 174.24,939.66 175.39,941.25"/>
    </edge>
    <edge id=":15434355_14" function="internal">
        <lane id=":15434355_14_0" index="0" disallow="tram rail_urban rail rail_electric ship" speed="27.78" length="2.41" shape="169.87,936.65 170.61,937.93 170.61,938.86"/>
    </edge>
    <edge id=":15434355_24" function="internal">
        <lane id=":15434355_24_0" index="0" speed="20.83" length="13.87" shape="175.39,941.25 177.11,943.62 178.48,948.53 178.34,954.37"/>
    </edge>
    <edge id=":15434355_25" function="internal">
        <lane id=":15434355_25_0" index="0" speed="27.78" length="2.41" shape="170.61,938.86 169.88,939.41 168.40,939.60"/>
    </edge>
    <edge id=":15434355_15" function="internal">
        <lane id=":15434355_15_0" index="0" disallow="tram rail_urban rail rail_electric ship" speed="20.83" length="12.83" shape="171.80,953.45 171.92,949.80 171.14,946.77 169.48,944.35 166.93,942.56"/>
    </edge>
    <edge id=":15434355_16" function="internal">
        <lane id=":15434355_16_0" index="0" disallow="tram rail_urban rail rail_electric ship" speed="20.83" length="23.79" shape="171.80,953.45 175.37,929.89"/>
        <lane id=":15434355_16_1" index="1" disallow="tram rail_urban rail rail_electric ship" speed="20.83" length="23.79" shape="175.07,953.91 178.63,930.42"/>
    </edge>
    <edge id=":15434355_18" function="internal">
        <lane id=":15434355_18_0" index="0" disallow="tram rail_urban rail rail_electric ship" speed="15.28" length="7.06" shape="175.07,953.91 176.83,948.36 177.76,947.54"/>
    </edge>
    <edge id=":15434355_19" function="internal">
        <lane id=":15434355_19_0" index="0" disallow="tram rail_urban rail rail_electric ship" speed="13.89" length="2.41" shape="175.07,953.91 176.06,952.80 176.94,952.51"/>
    </edge>
    <edge id=":15434355_26" function="internal">
        <lane id=":15434355_26_0" index="0" speed="15.28" length="15.05" shape="177.76,947.54 180.17,945.41 185.09,945.06 191.60,947.31"/>
    </edge>
    <edge id=":15434355_27" function="internal">
        <lane id=":15434355_27_0" index="0" speed="13.89" length="2.41" shape="176.94,952.51 177.70,953.03 178.34,954.37"/>
    </edge>
    <edge id=":1787991473_0" function="internal">
        <lane id=":1787991473_0_0" index="0" allow="delivery bicycle pedestrian" speed="5.56" length="4.82" shape="107.34,908.57 108.51,907.65 109.42,907.52 110.08,908.16 110.47,909.60"/>
    </edge>
    <edge id=":2172798636_0" function="internal">
        <lane id=":2172798636_0_0" index="0" allow="delivery bicycle pedestrian" speed="5.56" length="3.80" shape="166.20,981.06 162.44,980.46"/>
    </edge>
    <edge id=":2172798636_1" function="internal">
        <lane id=":2172798636_1_0" index="0" allow="delivery bicycle pedestrian" speed="5.56" length="2.52" shape="166.20,981.06 165.08,980.08 164.77,979.21 164.83,979.12"/>
    </edge>
    <edge id=":2172798636_4" function="internal">
        <lane id=":2172798636_4_0" index="0" speed="5.56" length="2.30" shape="164.83,979.12 165.29,978.44 166.62,977.78"/>
    </edge>
    <edge id=":2172798636_2" function="internal">
        <lane id=":2172798636_2_0" index="0" allow="delivery bicycle pedestrian" speed="5.56" length="3.70" shape="162.97,977.20 166.62,977.78"/>
    </edge>
    <edge id=":2172798636_3" function="internal">
        <lane id=":2172798636_3_0" index="0" allow="delivery bicycle pedestrian" speed="5.56" length="2.41" shape="162.97,977.20 164.06,978.21 164.33,979.09"/>
    </edge>
    <edge id=":2172798636_5" function="internal">
        <lane id=":2172798636_5_0" index="0" speed="5.56" length="2.41" shape="164.33,979.09 163.80,979.84 162.44,980.46"/>
    </edge>
    <edge id=":250197378_0" function="internal">
        <lane id=":250197378_0_0" index="0" disallow="tram rail_urban rail rail_electric ship" speed="27.78" length="4.82" shape="338.49,-0.32 339.54,-1.37 340.43,-1.62 341.16,-1.06 341.73,0.32"/>
    </edge>
    <edge id=":297794532_0" function="internal">
        <lane id=":297794532_0_0" index="0" disallow="tram rail_urban rail rail_electric ship" speed="13.89" length="4.82" shape="148.87,1161.01 147.91,1162.15 147.04,1162.46 146.27,1161.96 145.59,1160.63"/>
    </edge>
    <edge id=":3165908223_0" function="internal">
        <lane id=":3165908223_0_0" index="0" allow="delivery bicycle pedestrian" speed="5.56" length="4.82" shape="198.49,913.89 197.50,912.78 197.31,911.88 197.91,911.18 199.32,910.69"/>
    </edge>
    <edge id=":3165909761_0" function="internal">
        <lane id=":3165909761_0_0" index="0" allow="delivery bicycle pedestrian" speed="5.56" length="5.21" shape="214.25,973.46 212.15,978.23"/>
    </edge>
    <edge id=":3165909761_1" function="internal">
        <lane id=":3165909761_1_0" index="0" allow="delivery bicycle pedestrian" speed="5.56" length="2.41" shape="214.25,973.46 212.98,974.24 212.06,974.27"/>
    </edge>
    <edge id=":3165909761_4" function="internal">
        <lane id=":3165909761_4_0" index="0" speed="5.56" length="2.41" shape="212.06,974.27 211.48,973.54 211.25,972.07"/>
    </edge>
    <edge id=":3165909761_2" function="internal">
        <lane id=":3165909761_2_0" index="0" allow="delivery bicycle pedestrian" speed="5.56" length="5.34" shape="209.10,976.96 211.25,972.07"/>
    </edge>
    <edge id=":3165909761_3" function="internal">
        <lane id=":3165909761_3_0" index="0" allow="delivery bicycle pedestrian" speed="5.56" length="2.41" shape="209.10,976.96 210.34,976.14 211.26,976.08"/>
    </edge>
    <edge id=":3165909761_5" function="internal">
        <lane id=":3165909761_5_0" index="0" speed="5.56" length="2.41" shape="211.26,976.08 211.86,976.77 212.15,978.23"/>
    </edge>
    <edge id=":3165909765_0" function="internal">
        <lane id=":3165909765_0_0" index="0" allow="delivery bicycle pedestrian" speed="5.56" length="4.58" shape="188.14,984.61 183.62,983.87"/>
    </edge>
    <edge id=":3165909765_1" function="internal">
        <lane id=":3165909765_1_0" index="0" allow="delivery bicycle pedestrian" speed="5.56" length="2.41" shape="188.14,984.61 187.05,983.59 186.78,982.71"/>
    </edge>
    <edge id=":3165909765_4" function="internal">
        <lane id=":3165909765_4_0" index="0" speed="5.56" length="2.41" shape="186.78,982.71 187.32,981.96 188.67,981.35"/>
    </edge>
    <edge id=":3165909765_2" function="internal">
        <lane id=":3165909765_2_0" index="0" allow="delivery bicycle pedestrian" speed="5.56" length="4.58" shape="184.15,980.61 188.67,981.35"/>
    </edge>
    <edge id=":3165909765_3" function="internal">
        <lane id=":3165909765_3_0" index="0" allow="delivery bicycle pedestrian" speed="5.56" length="2.41" shape="184.15,980.61 185.24,981.63 185.51,982.51"/>
    </edge>
    <edge id=":3165909765_5" function="internal">
        <lane id=":3165909765_5_0" index="0" speed="5.56" length="2.41" shape="185.51,982.51 184.97,983.26 183.62,983.87"/>
    </edge>
    <edge id=":4487223959_0" function="internal">
        <lane id=":4487223959_0_0" index="0" disallow="tram rail_urban rail rail_electric ship" speed="16.67" length="4.82" shape="562.69,1132.94 563.42,1134.23 563.42,1135.15 562.68,1135.70 561.21,1135.89"/>
    </edge>
    <edge id=":5840815375_0" function="internal">
        <lane id=":5840815375_0_0" index="0" disallow="tram rail_urban rail rail_electric ship" speed="27.78" length="11.82" shape="166.75,942.47 156.16,937.21"/>
        <lane id=":5840815375_0_1" index="1" disallow="tram rail_urban rail rail_electric ship" speed="27.78" length="11.82" shape="168.22,939.51 157.63,934.25"/>
    </edge>
    <edge id=":5840815375_2" function="internal">
        <lane id=":5840815375_2_0" index="0" disallow="tram rail_urban rail rail_electric ship" speed="27.78" length="2.41" shape="168.22,939.51 167.48,938.22 167.48,937.30"/>
    </edge>
    <edge id=":5840815375_7" function="internal">
        <lane id=":5840815375_7_0" index="0" speed="27.78" length="2.41" shape="167.48,937.30 168.21,936.74 169.69,936.56"/>
    </edge>
    <edge id=":5840815375_3" function="internal">
        <lane id=":5840815375_3_0" index="0" disallow="tram rail_urban rail rail_electric ship" speed="27.78" length="11.82" shape="162.04,925.38 172.63,930.65"/>
        <lane id=":5840815375_3_1" index="1" disallow="tram rail_urban rail rail_electric ship" speed="27.78" length="11.82" shape="160.57,928.34 171.16,933.60"/>
        <lane id=":5840815375_3_2" index="2" disallow="tram rail_urban rail rail_electric ship" speed="27.78" length="11.82" shape="159.10,931.30 169.69,936.56"/>
    </edge>
    <edge id=":5840815375_6" function="internal">
        <lane id=":5840815375_6_0" index="0" disallow="tram rail_urban rail rail_electric ship" speed="27.78" length="2.41" shape="159.10,931.30 159.84,932.59 159.84,933.51"/>
    </edge>
    <edge id=":5840815375_8" function="internal">
        <lane id=":5840815375_8_0" index="0" speed="27.78" length="2.41" shape="159.84,933.51 159.11,934.06 157.63,934.25"/>
    </edge>
    <edge id=":5840815376_0" function="internal">
        <lane id=":5840815376_0_0" index="0" disallow="tram rail_urban rail rail_electric ship" speed="27.78" length="9.88" shape="186.75,921.51 185.18,931.27"/>
        <lane id=":5840815376_0_1" index="1" disallow="tram rail_urban rail rail_electric ship" speed="27.78" length="9.88" shape="183.49,920.99 181.92,930.75"/>
    </edge>
    <edge id=":5840815376_2" function="internal">
        <lane id=":5840815376_2_0" index="0" disallow="tram rail_urban rail rail_electric ship" speed="27.78" length="2.41" shape="183.49,920.99 182.48,922.08 181.60,922.36"/>
    </edge>
    <edge id=":5840815376_6" function="internal">
        <lane id=":5840815376_6_0" index="0" speed="27.78" length="2.41" shape="181.60,922.36 180.85,921.82 180.23,920.47"/>
    </edge>
    <edge id=":5840815376_3" function="internal">
        <lane id=":5840815376_3_0" index="0" disallow="tram rail_urban rail rail_electric ship" speed="27.78" length="9.88" shape="175.40,929.70 176.97,919.94"/>
        <lane id=":5840815376_3_1" index="1" disallow="tram rail_urban rail rail_electric ship" speed="27.78" length="9.88" shape="178.66,930.22 180.23,920.47"/>
    </edge>
    <edge id=":5840815376_5" function="internal">
        <lane id=":5840815376_5_0" index="0" disallow="tram rail_urban rail rail_electric ship" speed="27.78" length="2.41" shape="178.66,930.22 179.67,929.13 180.55,928.86"/>
    </edge>
    <edge id=":5840815376_7" function="internal">
        <lane id=":5840815376_7_0" index="0" speed="27.78" length="2.41" shape="180.55,928.86 181.30,929.39 181.92,930.75"/>
    </edge>