<?xml version="1.0" encoding="UTF-8"?>

<!-- generated on Tue Dec 11 22:40:51 2018 by SUMO polyconvert Version 0.32.0
<?xml version="1.0" encoding="UTF-8"?>

<configuration xmlns:xsi="http://www.w3.org/2001/XMLSchema-instance" xsi:noNamespaceSchemaLocation="http://sumo.dlr.de/xsd/polyconvertConfiguration.xsd">

    <input>
        <net-file value="/home/nathaniel/sumo-0.32.0/2018-12-11-22-40-50/osm.net.xml"/>
        <osm-files value="osm_bbox.osm.xml"/>
        <osm.keep-full-type value="true"/>
        <type-file value="/home/nathaniel/sumo-0.32.0/data/typemap/osmPolyconvert.typ.xml"/>
    </input>

    <output>
        <output-file value="/home/nathaniel/sumo-0.32.0/2018-12-11-22-40-50/osm.poly.xml"/>
    </output>

    <processing>
        <poi-layer-offset value="5"/>
    </processing>

    <report>
        <verbose value="true"/>
    </report>

</configuration>
-->

<additional xmlns:xsi="http://www.w3.org/2001/XMLSchema-instance" xsi:noNamespaceSchemaLocation="http://sumo.dlr.de/xsd/additional_file.xsd">
    <location netOffset="-538239.30,-4812859.35" convBoundary="-480.04,0.00,649.56,1165.74" origBoundary="-80.533148,43.467652,-80.519166,43.478153" projParameter="+proj=utm +zone=17 +ellps=WGS84 +datum=WGS84 +units=m +no_defs"/>

    <poly id="118409050" type="landuse.commercial" color="209,209,204" fill="1" layer="-3.00" shape="189.58,975.96 191.48,972.21 194.22,971.38 198.03,972.73 202.43,974.25 212.40,978.18 264.84,1002.27 252.80,1083.75 210.73,1077.60 199.38,1140.95 241.91,1147.54 239.04,1165.74 158.28,1152.78 186.67,987.72 189.58,975.96"/>
    <poly id="118409064" type="amenity.parking" color="184,184,179" fill="1" layer="-1.00" shape="192.23,974.15 205.39,976.83 224.50,986.11 223.59,992.21 221.72,991.78 212.47,990.22 210.53,991.31 210.11,992.81 203.75,992.10 203.19,994.15 188.21,992.96 192.23,974.15"/>
    <poly id="118662117" type="landuse.commercial" color="209,209,204" fill="1" layer="-3.00" shape="196.75,935.45 222.29,950.58 234.98,956.62 246.58,962.13 265.07,971.28 270.99,973.11 273.65,965.47 289.60,912.11 295.47,891.95 204.37,863.73 204.10,866.77 198.19,906.16 196.75,935.45"/>
    <poly id="118662118" type="amenity.bank" color="237,199,199" fill="1" layer="-1.00" shape="200.92,934.27 203.55,916.94 215.28,921.08 232.96,927.32 224.29,946.15 200.92,934.27"/>
    <poly id="118662118#1" type="building.yes" color="255,230,230" fill="1" layer="-1.00" shape="200.92,934.27 203.55,916.94 215.28,921.08 232.96,927.32 224.29,946.15 200.92,934.27"/>
    <poly id="118662119" type="building.yes" color="255,230,230" fill="1" layer="-1.00" shape="205.57,908.53 204.52,906.01 206.78,891.75 210.24,892.36 221.22,894.31 218.31,910.58 205.57,908.53"/>
    <poly id="118662124" type="building.yes" color="255,230,230" fill="1" layer="-1.00" shape="254.24,919.68 263.81,923.96 256.29,941.09 246.84,936.91 254.24,919.68"/>
    <poly id="118662125" type="building.yes" color="255,230,230" fill="1" layer="-1.00" shape="246.84,936.91 256.29,941.09 249.00,958.42 238.68,954.02 246.84,936.91"/>
    <poly id="118662126" type="amenity.parking" color="184,184,179" fill="1" layer="-1.00" shape="198.19,906.16 202.53,907.65 204.52,906.01 206.78,891.75 211.37,868.71 204.10,866.77 198.19,906.16"/>
    <poly id="118662127" type="amenity.parking" color="184,184,179" fill="1" layer="-1.00" shape="224.26,876.83 225.52,871.95 263.59,884.87 234.98,956.62 222.29,950.58 224.29,946.15 232.96,927.32 215.28,921.08 218.31,910.58 224.26,876.83"/>
    <poly id="118662130" type="amenity.parking" color="184,184,179" fill="1" layer="-1.00" shape="273.65,965.47 266.23,968.95 249.00,958.42 263.81,923.96 267.50,925.62 272.03,915.00 268.01,913.23 270.99,907.18 289.60,912.11 273.65,965.47"/>
    <poly id="133952656" type="building.retail" color="255,230,230" fill="1" layer="-1.00" shape="108.03,931.77 103.56,935.51 99.96,959.29 146.03,965.49 145.19,971.85 160.88,973.01 162.79,965.33 157.78,957.09 108.03,931.77"/>
    <poly id="147709904" type="landuse.commercial" color="209,209,204" fill="1" layer="-3.00" shape="94.69,918.48 93.04,926.35 85.41,974.77 68.04,1084.85 96.65,1088.91 94.82,1106.24 80.73,1103.99 75.12,1140.02 113.05,1145.85 130.37,1148.77 132.76,1148.16 135.20,1146.62 136.98,1142.45 166.25,965.07 166.36,959.70 165.62,956.18 162.85,954.27 158.96,951.51 146.63,944.83 94.69,918.48"/>
    <poly id="167410368" type="amenity.parking" color="184,184,179" fill="1" layer="-1.00" shape="93.04,926.35 100.73,927.72 95.98,958.62 99.96,959.29 146.03,965.49 145.19,971.85 160.88,973.01 158.14,986.13 85.41,974.77 93.04,926.35"/>
    <poly id="226405688" type="amenity.university" color="237,199,199" fill="1" layer="-1.00" shape="-107.45,786.81 53.37,866.00 91.20,885.34 101.26,889.96 113.79,893.94 137.15,904.72 150.32,913.08 158.19,917.16 163.72,918.25 168.44,913.60 172.56,901.52 175.22,883.48 181.84,857.70 204.37,863.73 295.47,891.95 301.69,870.09 206.81,837.68 186.51,830.85 188.67,819.87 193.44,785.81 215.23,784.49 287.59,818.14 314.18,832.56 324.18,797.07 341.68,801.73 348.25,802.34 412.26,822.12 469.03,841.59 509.21,861.76 523.63,813.33 526.04,808.84 572.34,830.73 578.68,822.34 628.22,846.57 649.56,802.94 591.28,773.61 568.29,818.99 536.45,802.66 562.01,758.88 533.85,744.72 492.91,724.12 457.29,706.51 404.44,680.38 395.89,731.14 393.74,747.53 360.97,730.94 342.64,717.80 285.89,689.23 217.47,654.19 222.93,618.31 -1.35,508.18 -153.32,430.65 -236.94,530.61 -246.34,522.51 -250.73,519.18 -343.69,448.65 -316.23,413.23 -368.97,370.63 -467.89,491.72 -435.53,518.46 -480.04,570.16 -441.97,597.60 -405.38,552.57 -395.74,560.08 -364.84,581.48 -315.66,525.01 -279.38,553.71 -274.79,557.35 -264.02,565.00 -339.34,658.93 -338.69,664.83 -338.80,667.83 -317.75,679.63 -199.29,739.22 -211.74,764.44 -281.20,900.90 -247.86,917.73 -191.35,946.25 -119.53,810.72 -107.45,786.81"/>
    <poi id="1334076851" type="amenity.atm" color="237,199,199" layer="4.00" x="203.02" y="932.81"/>
    <poi id="2302080411" type="amenity.fast_food" color="237,199,199" layer="4.00" x="125.05" y="943.50"/>
    <poi id="2302080412" type="amenity.fast_food" color="237,199,199" layer="4.00" x="138.08" y="949.69"/>
    <poi id="4035586918" type="amenity.post_office" color="237,199,199" layer="4.00" x="186.77" y="972.97"/>
    <poi id="503064510" type="amenity.cafe" color="237,199,199" layer="4.00" x="156.16" y="962.13"/>
    <poi id="503075244" type="amenity.fast_food" color="237,199,199" layer="4.00" x="132.34" y="945.81"/>
    <poi id="5777336140" type="amenity.atm" color="237,199,199" layer="4.00" x="211.07" y="906.49"/>
    <poi id="5923220707" type="amenity.food_court" color="237,199,199" layer="4.00" x="149.47" y="957.15"/>
</additional>
